Circuit: *** SPICE deck for cell 2-input_OR{lay} from library Project1

Vgnd: both pins shorted together -- ignoring.
Ignoring BSIM parameter XL
Ignoring BSIM parameter XW
Ignoring BSIM parameter XL
Ignoring BSIM parameter XW
Direct Newton iteration for .op point succeeded.

Date: Sun Sep 22 22:45:49 2019
Total elapsed time: 0.125 seconds.

tnom = 27
temp = 27
method = modified trap
totiter = 3430
traniter = 3422
tranpoints = 1420
accept = 1302
rejected = 118
matrix size = 9
fillins = 0
solver = Normal
Matrix Compiler1: 404 bytes object code size  0.2/0.1/[0.1]
Matrix Compiler2: off  [0.2]/0.2/0.2

