Circuit: *** SPICE deck for cell 2-input_OR_NOT{sch} from library Project1

Vgnd: both pins shorted together -- ignoring.
Ignoring BSIM parameter XL
Ignoring BSIM parameter XW
Ignoring BSIM parameter XL
Ignoring BSIM parameter XW
Warning: Pd = 0 is less than W.
Warning: Ps = 0 is less than W.
Warning: Pd = 0 is less than W.
Warning: Ps = 0 is less than W.
Direct Newton iteration for .op point succeeded.

Date: Thu Sep 19 13:59:47 2019
Total elapsed time: 0.221 seconds.

tnom = 27
temp = 27
method = modified trap
totiter = 2697
traniter = 2688
tranpoints = 1215
accept = 1169
rejected = 46
matrix size = 8
fillins = 0
solver = Normal
Matrix Compiler1: 300 bytes object code size  0.2/0.1/[0.1]
Matrix Compiler2: 676 bytes object code size  0.1/0.2/[0.1]

