Circuit: *** SPICE deck for cell 2-input_NOR{lay} from library Project1

Vgnd: both pins shorted together -- ignoring.
Ignoring BSIM parameter XL
Ignoring BSIM parameter XW
Ignoring BSIM parameter XL
Ignoring BSIM parameter XW
Direct Newton iteration for .op point succeeded.

Date: Fri Sep 20 17:43:19 2019
Total elapsed time: 0.312 seconds.

tnom = 27
temp = 27
method = modified trap
totiter = 2503
traniter = 2496
tranpoints = 1192
accept = 1150
rejected = 42
matrix size = 8
fillins = 0
solver = Normal
Matrix Compiler1: 282 bytes object code size  0.2/0.1/[0.0]
Matrix Compiler2: 682 bytes object code size  0.1/0.2/[0.1]

