Circuit: *** SPICE deck for cell ABCD{lay} from library Homework-2

Vgnd: both pins shorted together -- ignoring.
Ignoring BSIM parameter XL
Ignoring BSIM parameter XW
Ignoring BSIM parameter XL
Ignoring BSIM parameter XW
WARNING: Less than two connections to node NET@21.  This node is used by MPMOS@0.
WARNING: Less than two connections to node NET@51.  This node is used by MPMOS@3.
Direct Newton iteration for .op point succeeded.

Date: Fri Oct 04 13:57:26 2019
Total elapsed time: 0.360 seconds.

tnom = 27
temp = 27
method = modified trap
totiter = 4604
traniter = 4584
tranpoints = 1950
accept = 1720
rejected = 230
matrix size = 16
fillins = 0
solver = Normal
Matrix Compiler1: 772 bytes object code size  0.4/0.3/[0.1]
Matrix Compiler2: off  [0.2]/0.5/0.3

