Circuit: *** SPICE deck for cell Inverterx2{lay} from library Homework_3

R0: both pins shorted together -- ignoring.
R12: both pins shorted together -- ignoring.
Vgnd: both pins shorted together -- ignoring.
Ignoring BSIM parameter XL
Ignoring BSIM parameter XW
Ignoring BSIM parameter XL
Ignoring BSIM parameter XW
Direct Newton iteration for .op point succeeded.

Date: Fri Oct 25 19:45:10 2019
Total elapsed time: 0.298 seconds.

tnom = 27
temp = 27
method = modified trap
totiter = 2494
traniter = 2483
tranpoints = 1162
accept = 1121
rejected = 41
matrix size = 28
fillins = 26
solver = Normal
Matrix Compiler1: 2.46 KB object code size  0.8/0.6/[0.3]
Matrix Compiler2: 2.53 KB object code size  0.4/0.7/[0.3]

