Circuit: *** SPICE deck for cell Inverter{lay} from library Project1

Vgnd: both pins shorted together -- ignoring.
Ignoring BSIM parameter XL
Ignoring BSIM parameter XW
Ignoring BSIM parameter XL
Ignoring BSIM parameter XW
Direct Newton iteration for .op point succeeded.

Date: Fri Sep 20 16:18:43 2019
Total elapsed time: 0.301 seconds.

tnom = 27
temp = 27
method = modified trap
totiter = 2412
traniter = 2405
tranpoints = 1153
accept = 1121
rejected = 32
matrix size = 5
fillins = 0
solver = Normal
Matrix Compiler1: 204 bytes object code size  0.1/0.1/[0.1]
Matrix Compiler2: 311 bytes object code size  0.1/0.2/[0.1]

